CRYSTAL
PRIMVEC
             3.17084100          0.01615800         -0.21912600
            -0.01197300          5.50815200          0.21826900
            -0.29384700          0.55883300          7.26519500
CONVVEC
             3.17084100          0.01615800         -0.21912600
            -0.01197300          5.50815200          0.21826900
            -0.29384700          0.55883300          7.26519500
PRIMCOORD
  6  1
 42          1.63930200          4.92754300          0.27744900
 42          0.05483500          2.16610900          0.27558600
 16          0.16924900          0.26703900          1.76227800
 16          1.74542900          3.02889300          1.76031000
 16          2.83448100          0.96490700          5.69281800
 16          1.23644700          3.71157800          5.90873400
