CRYSTAL
PRIMVEC
             3.17084100          0.01615800         -0.21912600
            -0.01197300          5.50815200          0.21826900
             3.63202484          0.14494513         17.93995688
CONVVEC
             3.17084100          0.01615800         -0.21912600
            -0.01197300          5.50815200          0.21826900
             3.63202484          0.14494513         17.93995688
PRIMCOORD
  6  1
 42          0.05483500          2.16610900          0.27558600
 42          1.63930200          4.92754300          0.27744900
 16          1.74542900          3.02889300          1.76031000
 16          0.16924900          0.26703900          1.76227800
 16          1.99147784          3.28153213         16.80262188
 16          3.58951184          0.53486113         16.58670588
