 SLAB
 PRIMVEC
   5.6851400000     0.0000000000     0.0000000000
   0.0000000000     5.6851400000     0.0000000000
   0.0000000000     0.0000000000    25.0146000000
 PRIMCOORD
40 1
  1        3.7781334143    4.0882125450   21.2053966916
  1        3.7781334143    1.5969264697   21.2053966916
  1        1.9070056005    4.0882125450   21.2053966916
  1        1.9070056005    1.5969264697   21.2053966916
  6        2.8425695074    3.5172371034   21.1578275643
  6        2.8425695074    2.1679019170   21.1578275643
 47        2.8425695074    2.8425695074   18.7322707924
 47        2.8425695074    0.0000000057   18.5413944160
 47        0.0000000057    2.8425695074   18.5276513940
 47        0.0000000057    0.0000000057   18.5233706378
 47        0.0000000057    0.0000000057    6.4912410269
 47        0.0000000057    2.8425695074    6.4869602708
 47        2.8425695074    0.0000000057    6.4732172488
 47        2.8425695074    2.8425695074    6.2823408724
  6        2.8425695074    3.5172371034    3.8567841004
  6        2.8425695074    2.1679019170    3.8567841004
  1        3.7781334143    4.0882125450    3.8092149732
  1        3.7781334143    1.5969264697    3.8092149732
  1        1.9070056005    4.0882125450    3.8092149732
  1        1.9070056005    1.5969264697    3.8092149732
 47        4.2452443280   -4.2473703085   16.5863965604
 47        4.2452443280   -1.4377686835   16.5863965604
 47        1.4398946867   -4.2473703085   16.5863965604
 47        1.4398946867   -1.4377686835   16.5863965604
 47        2.8425695074   -2.8425694960   14.5250173888
 47        2.8425695074    0.0000000057   14.5375864352
 47        0.0000000057   -2.8425694960   14.5407976860
 47        0.0000000057    0.0000000057   14.5610141313
 47       -1.4156802868   -1.4171916355   12.5073058324
 47        4.2694587166   -4.2679473565   12.5073058324
 47        1.4156802982   -4.2679473565   12.5073058324
 47        1.4156802982   -1.4171916355   12.5073058324
 47        2.8425695074   -2.8425694960   10.4895942760
 47        2.8425695074    0.0000000057   10.4770252296
 47        0.0000000057   -2.8425694960   10.4738139788
 47        0.0000000057    0.0000000057   10.4535975335
 47       -1.4398946753   -1.4377686835    8.4282151043
 47       -1.4398946753    1.4377686949    8.4282151043
 47        1.4398946867   -4.2473703085    8.4282151043
 47        1.4398946867   -1.4377686835    8.4282151043
