 SLAB
 PRIMVEC
    4.1620000000    0.0000000000    0.0000000000

   -2.0810000000    8.5801828100    0.0000000000

    0.0000000000    0.0000000000    1.0000000000
 PRIMCOORD
 8 1
 47     -1.0405000000     1.5141499100     1.7665082200
 47      1.0405000000     3.5330164500     1.2617915900
 47      1.0405000000    -3.0282998100     0.7570749540
 47     -1.0405000000    -1.0094332700     0.2523583180
 47      1.0405000000    -1.5141499100    -1.7665082200
 47     -1.0405000000    -3.5330164500    -1.2617915900
 47     -1.0405000000     3.0282998100    -0.7570749540
 47      1.0405000000     1.0094332700    -0.2523583180
