 SLAB
 PRIMVEC
    5.5246078800    0.0000000000    0.0000000000
    0.0000000000    3.9064878040    0.0000000000
    0.0000000000    0.0000000000   19.5324384880
 PRIMCOORD
 14 1
 31      0.3031580950     0.0000000000    -0.3114762280
 31      2.6436116560     1.9532436370    -1.8580462820
 31     -0.0518106620     0.0000000000    -3.8817233780
 31      2.7623039400     1.9532436370    -5.8597314410
 31      0.0000000000     0.0000000000    -7.8129756070
 31      2.7623039400     1.9532436370    -9.7662192440
 33      1.4763662580     1.9532436370     0.3364242780
 33      4.0486178660     3.9064878040    -1.9045164900
 33      1.3477148630     1.9532436370    -3.8838141570
 33      4.1434559100     3.9064878040    -5.8597314410
 33      1.3811519700     1.9532436370    -7.8129756070
 33      4.1434559100     3.9064878040    -9.7662192440
  1      1.8326336150     1.9532436370   -11.0071551850
  1      5.0841632790     3.9064878040   -11.0254911680
