CRYSTAL
PRIMVEC
             0.00000000          1.00000000          1.00000000
             1.00000000          0.00000000          1.00000000
             1.00000000          1.00000000          0.00000000
CONVVEC
             0.00000000          1.00000000          1.00000000
             1.00000000          0.00000000          1.00000000
             1.00000000          1.00000000          0.00000000
PRIMCOORD
  2  1
  1          0.00000000          0.00000000          0.00000000
  2          0.50000000          0.50000000          0.50000000
