CRYSTAL
PRIMVEC
             1.58000000         -2.73664028          0.00000000
             1.58000000          2.73664028          0.00000000
             0.00000000          0.00000000         12.29000000
CONVVEC
             1.58000000         -2.73664028          0.00000000
             1.58000000          2.73664028          0.00000000
             0.00000000          0.00000000         12.29000000
PRIMCOORD
  6  1
 42          1.58000000          0.91221343          3.07250000
 42          1.58000000         -0.91221343          9.21750000
 16          1.58000000          0.91221343          7.61980000
 16          1.58000000         -0.91221343          1.47480000
 16          1.58000000         -0.91221343         -7.61980000
 16          1.58000000          0.91221343         -1.47480000
