CRYSTAL
PRIMVEC
             1.58000000         -2.73664028          0.00000000
             1.58000000          2.73664028          0.00000000
             1.58000000         -2.73664028         36.39080000
CONVVEC
             1.58000000         -2.73664028          0.00000000
             1.58000000          2.73664028          0.00000000
             1.58000000         -2.73664028         36.39080000
PRIMCOORD
  6  1
 16          1.58000000          0.91221343         -1.47480000
 16          1.58000000         -0.91221343         13.52520000
 42          1.58000000          0.91221343         15.12290000
 16          3.16000000         -3.64885371         16.72060000
 16          1.58000000          0.91221343         31.72060000
 42          1.58000000         -0.91221343         33.31830000
