CRYSTAL
PRIMVEC
             0.00000000          1.00000000          1.00000000
             1.00000000          0.00000000          1.00000000
             9.16025404         10.16025404         -7.16025404
CONVVEC
             0.00000000          1.00000000          1.00000000
             1.00000000          0.00000000          1.00000000
             9.16025404         10.16025404         -7.16025404
PRIMCOORD
  2  1
  1          8.16025404          8.16025404         -8.16025404
  2          8.66025404          8.66025404         -7.66025404
