CRYSTAL
PRIMVEC
             0.00000000          1.00000000          1.00000000
             2.00000000          1.00000000          1.00000000
             1.00000000         -9.10660172         12.10660172
CONVVEC
             0.00000000          1.00000000          1.00000000
             2.00000000          1.00000000          1.00000000
             1.00000000         -9.10660172         12.10660172
PRIMCOORD
  2  1
  1          0.00000000        -10.10660172         10.10660172
  2          0.50000000         -9.60660172         10.60660172
